56
45934466
O         13.86220      -18.32360        0.03720
O         15.89650      -18.66690       -0.09970
C         15.69040      -14.49180       -0.13830
C         17.66920      -10.47710       -0.07180
C         16.44530      -11.98580        0.13410
C         18.10740      -16.10770        0.15420
C         14.11020      -15.59630       -0.07760
C         15.03960      -12.43930       -0.16720
C         15.88250      -10.72720       -0.13870
C         22.19630      -17.70210       -0.04670
C         17.24510       -9.15740        0.01760
C         16.69770       -9.83060        0.10970
C         17.80410      -12.62240        0.21860
C         26.01210      -14.99420       -0.07220
C         18.54240      -14.45820        0.22740
C         19.56090      -16.16310        0.06770
C         20.74660      -17.66410        0.04000
C         24.26030      -18.11410       -0.00970
C         25.87410      -16.97610       -0.02100
C         26.64650      -13.41620        0.00150
C         23.55840      -11.41010       -0.02110
C         25.55440      -11.81850        0.02440
C         14.73050      -17.67370       -0.04980
C         23.72650      -10.20350       -0.11860
H         15.98950      -15.30030       -0.20930
H         17.08750      -14.50270       -0.09670
H         18.80310       -9.73140       -0.11780
H         18.36890      -11.86300       -0.04910
H         14.91960      -12.17130        0.16140
H         16.57620      -12.92690        0.06720
H         16.60340      -15.98720        0.12410
H         18.13910      -17.50770        0.19660
H         12.72910      -15.70190       -0.12120
H         13.79580      -14.78390       -0.00700
H         13.75480      -12.35330       -0.21710
H         15.22710       -9.36880       -0.16810
H         21.76520      -18.89170       -0.09920
H         22.10060      -16.32720       -0.09050
H         17.36420       -7.56830        0.00600
H         16.39310       -8.76280        0.16980
H         18.17340      -11.55180        0.27760
H         24.67050      -14.62680       -0.11440
H         27.16610      -15.10390       -0.13100
H         19.51590      -14.78730        0.29120
H         19.66280      -14.81440        0.02270
H         20.64450      -19.02730        0.08410
H         24.46450      -19.52520        0.02920
H         27.25610      -17.55070        0.01000
H         28.09040      -13.57520        0.03730
H         22.70810      -12.76230       -0.03460
H         22.69160      -10.56980        0.03490
H         26.14640      -10.73430        0.07750
H         22.25560       -9.87750       -0.14920
H         24.47760       -8.79210       -0.10470
H         24.55390      -11.00370       -0.17740
H         14.28460      -19.67010        0.05490
